199
2mu3	A	MODEL 1		part from residue 1 to 199
C	-11.433	-6.375	0.719
C	-14.108	-4.398	-1.072
C	-13.857	-2.59	-4.442
C	-15.1	1.002	-4.098
C	-18.163	1.099	-6.332
C	-16.606	-1.628	-8.434
C	-13.31	0.26	-8.866
C	-11.128	-2.736	-8.019
C	-7.728	-1.151	-7.739
C	-5.261	-3.848	-8.72
C	-2.858	-4.341	-11.637
C	-1.804	-7.627	-13.19
C	0.796	-6.076	-15.496
C	2.691	-4.703	-12.536
C	2.798	-8.269	-11.137
C	5.736	-8.888	-13.419
C	7.833	-5.955	-12.246
C	6.814	-6.064	-8.514
C	9.545	-8.417	-7.296
C	12.154	-6.541	-9.294
C	11.182	-3.091	-7.988
C	13.173	-1.362	-5.137
C	11.527	-3.833	-2.685
C	13.949	-6.42	-4.108
C	16.792	-4.465	-2.515
C	14.753	-4.125	0.653
C	14.083	-7.894	0.999
C	12.028	-6.915	4.058
C	8.944	-8.796	5.309
C	6.861	-6.019	3.622
C	6.831	-8.094	0.423
C	7.581	-11.473	1.98
C	4.507	-12.006	4.221
C	3.978	-9.082	6.613
C	1.603	-6.384	5.369
C	3.391	-3.508	3.696
C	3.797	-0.231	5.52
C	0.748	1.82	4.715
C	-1.129	-1.07	3.152
C	-3.761	-0.199	0.558
C	-7.394	0.064	1.675
C	-8.256	-2.296	-1.172
C	-7.427	-5.219	1.118
C	-8.783	-3.686	4.341
C	-11.749	-1.488	3.302
C	-12.904	-1.454	6.925
C	-11.369	1.619	8.558
C	-7.75	1.516	7.449
C	-7.671	3.894	4.488
C	-3.969	4.746	4.722
C	-3.348	3.659	8.356
C	-1.545	6.981	8.758
C	-3.939	9.542	10.291
C	-3.582	11.86	7.254
C	-5.73	9.952	4.723
C	-6.932	7.419	7.318
C	-8.75	10.217	9.116
C	-12.361	9.069	9.037
C	-13.448	7.769	12.473
C	-11.077	9.798	14.598
C	-7.653	8.347	13.857
C	-5.217	9.347	16.572
C	-4.045	6.653	18.927
C	-7.318	4.918	19.834
C	-8.525	3.439	16.553
C	-4.944	3.554	15.408
C	-3.511	0.973	17.808
C	-6.882	-0.642	18.356
C	-9.752	-1.252	15.926
C	-7.524	-0.718	12.832
C	-5.004	-3.496	13.476
C	-7.699	-5.692	14.892
C	-9.923	-5.162	11.845
C	-7.207	-6.162	9.375
C	-6.038	-8.809	11.8
C	-9.594	-10.245	12.044
C	-9.67	-10.61	8.275
C	-9.613	-14.218	7.049
C	-6.062	-15.293	6.339
C	-7.179	-18.425	4.604
C	-6.284	-16.784	1.318
C	-2.73	-16.405	2.722
C	-0.855	-13.151	3.206
C	0.482	-13.295	-0.349
C	-3.069	-12.876	-1.696
C	-3.245	-9.543	0.107
C	-1.297	-6.369	-0.79
C	1.856	-8.405	-0.295
C	3.01	-9.246	-3.81
C	1.819	-5.912	-5.179
C	3.694	-4.2	-2.327
C	6.134	-2.602	-4.763
C	3.428	-1.108	-6.985
C	1.244	-0.091	-4.077
C	4.092	1.486	-2.119
C	5.657	3.145	-5.213
C	9.232	3.999	-4.279
C	9.733	5.824	-7.57
C	12.71	3.664	-8.495
C	10.393	1.502	-10.565
C	9.026	1.459	-14.088
C	7.406	4.885	-14.48
C	5.54	3.861	-17.62
C	3.777	1.264	-15.506
C	1.94	3.897	-13.491
C	1.6	6.205	-16.488
C	0.043	3.481	-18.615
C	-1.795	0.962	-16.449
C	-1.381	2.174	-12.889
C	-3.448	5.334	-13.121
C	-5.918	3.663	-15.512
C	-6.53	0.247	-13.971
C	-5.983	1.067	-10.3
C	-7.188	4.615	-10.947
C	-8.325	6.002	-7.555
C	-5.831	3.94	-5.569
C	-2.619	5.221	-7.098
C	-4.051	8.741	-7.139
C	-4.361	8.561	-3.372
C	-1.052	6.737	-3.07
C	0.677	9.534	-5.028
C	0.119	11.856	-2.091
C	0.491	9.061	0.467
C	3.344	6.554	0.009
C	4.764	8.166	-3.07
C	4.187	11.601	-1.605
C	5.451	11.607	1.963
C	5.816	7.947	2.792
C	3.163	6.232	4.866
C	4.189	5.291	8.385
C	2.039	2.977	10.479
C	1.749	2.688	14.29
C	4.637	1.187	16.239
C	2.407	-1.578	17.607
C	2.792	-4.301	14.996
C	4.007	-2.846	11.663
C	6.981	-0.883	13.015
C	8.03	-3.796	15.234
C	8.109	-6.12	12.229
C	9.695	-3.834	9.65
C	12.379	-2.579	12.052
C	13.428	-6.105	13.056
C	13.033	-7.305	9.487
C	14.669	-4.655	7.293
C	17.748	-4.572	9.536
C	18.792	-8.198	8.987
C	16.972	-8.742	5.72
C	18.717	-5.748	4.113
C	20.574	-8.091	1.803
C	19.658	-11.413	3.382
C	18.319	-12.734	0.067
C	21.04	-15.375	0.182
C	24.253	-13.987	1.621
C	24.009	-10.823	3.721
C	27.593	-11.117	4.98
C	28.916	-10.807	1.424
C	25.95	-8.605	0.478
C	25.543	-11.008	-2.523
C	27.854	-8.674	-4.427
C	29.754	-11.721	-5.597
C	26.444	-13.119	-6.947
C	25.47	-16.787	-7.212
C	26.197	-16.817	-10.933
C	29.123	-19.135	-10.167
C	26.716	-22.092	-10.024
C	25.094	-21.019	-13.278
C	21.946	-19.714	-11.644
C	20.992	-17.636	-14.677
C	18.066	-16.04	-12.925
C	16.651	-16.615	-9.493
C	13.95	-13.995	-9.092
C	14.56	-10.236	-9.323
C	16.119	-9.964	-12.809
C	18.633	-12.692	-12.076
C	20.426	-14.682	-9.34
C	21.335	-13.576	-5.85
C	22.634	-10.179	-6.792
C	21.84	-6.497	-6.364
C	23.71	-5.339	-3.243
C	21.98	-2.912	-0.891
C	25.402	-1.367	-0.396
C	28.519	-0.499	-2.436
C	28.704	2.105	-5.226
C	26.283	1.168	-7.959
C	23.692	-1.196	-6.325
C	22.342	-1.607	-9.861
C	25.198	-3.996	-10.538
C	23.483	-7.158	-11.669
C	20.414	-6.74	-9.51
C	18.676	-4.164	-11.623
C	15.126	-4.493	-13.086
C	14.553	-4.5	-16.84
C	11.985	-1.82	-16.197
C	13.523	0.75	-13.917
C	13.244	4.512	-13.952
C	14.748	6.997	-11.523
C	17.608	4.614	-10.871
C	20.699	5.986	-9.214
C	21.686	7.983	-6.197
