2632
2mu3	A	MODEL 1		part from atom to 
N	-11.791	-7.083	1.96
C	-11.433	-6.375	0.719
C	-12.681	-6.066	-0.094
O	-13.399	-6.979	-0.512
C	-10.458	-7.208	-0.103
H	-12.284	-7.97	1.73
H	-12.425	-6.492	2.533
H	-10.939	-7.301	2.514
H	-10.947	-5.447	0.982
H	-9.607	-7.475	0.507
H	-10.122	-6.633	-0.953
H	-10.949	-8.105	-0.449
N	-12.943	-4.79	-0.313
C	-14.108	-4.398	-1.072
C	-13.798	-3.319	-2.092
O	-13.279	-2.261	-1.736
H	-12.342	-4.095	0.045
H	-14.497	-5.267	-1.584
H	-14.86	-4.028	-0.391
N	-14.1	-3.563	-3.378
C	-13.857	-2.59	-4.442
C	-14.843	-1.42	-4.382
O	-16.055	-1.607	-4.495
C	-14.061	-3.402	-5.723
C	-15.005	-4.487	-5.333
C	-14.697	-4.811	-3.893
H	-12.847	-2.209	-4.406
H	-14.478	-2.767	-6.492
H	-13.115	-3.803	-6.055
H	-16.022	-4.136	-5.43
H	-14.848	-5.355	-5.957
H	-15.604	-5.052	-3.355
H	-13.992	-5.627	-3.829
N	-14.304	-0.223	-4.21
C	-15.1	1.002	-4.098
C	-15.964	1.213	-5.33
O	-15.467	1.616	-6.372
C	-14.187	2.229	-3.91
C	-13.308	2.194	-2.664
C	-12.238	1.12	-2.713
O	-11.732	0.779	-3.785
N	-11.898	0.575	-1.567
H	-13.326	-0.153	-4.146
H	-15.74	0.91	-3.232
H	-13.539	2.308	-4.77
H	-14.806	3.113	-3.862
H	-12.818	3.149	-2.574
H	-13.936	2.023	-1.802
H	-12.345	0.892	-0.752
H	-11.223	-0.136	-1.57
N	-17.247	0.901	-5.218
C	-18.163	1.099	-6.332
C	-17.786	0.282	-7.555
O	-18.17	0.617	-8.678
H	-17.578	0.519	-4.377
H	-19.158	0.823	-6.02
H	-18.162	2.146	-6.6
N	-17.031	-0.786	-7.337
C	-16.606	-1.628	-8.434
C	-15.288	-1.185	-9.046
O	-14.894	-1.687	-10.097
H	-16.771	-1.007	-6.416
H	-16.495	-2.637	-8.07
H	-17.367	-1.611	-9.199
N	-14.613	-0.236	-8.393
C	-13.31	0.26	-8.866
C	-12.309	-0.88	-9.043
O	-11.779	-1.084	-10.138
C	-12.739	1.325	-7.91
C	-12.881	2.736	-8.425
C	-11.938	3.266	-9.292
C	-13.954	3.528	-8.048
C	-12.062	4.557	-9.77
C	-14.083	4.819	-8.523
C	-13.135	5.334	-9.385
H	-15.012	0.152	-7.584
H	-13.466	0.718	-9.833
H	-13.253	1.269	-6.957
H	-11.689	1.133	-7.751
H	-11.097	2.658	-9.594
H	-14.696	3.127	-7.374
H	-11.32	4.957	-10.445
H	-14.924	5.425	-8.221
H	-13.234	6.343	-9.758
N	-12.064	-1.623	-7.963
C	-11.128	-2.736	-8.019
C	-9.738	-2.284	-8.404
O	-9.296	-2.488	-9.539
H	-12.518	-1.411	-7.124
H	-11.088	-3.212	-7.051
H	-11.478	-3.451	-8.75
N	-9.046	-1.672	-7.469
C	-7.728	-1.151	-7.739
C	-6.662	-2.219	-7.561
O	-6.233	-2.521	-6.447
C	-7.448	0.046	-6.872
H	-9.425	-1.58	-6.569
H	-7.719	-0.829	-8.769
H	-6.478	0.451	-7.121
H	-7.46	-0.25	-5.833
H	-8.205	0.799	-7.04
N	-6.255	-2.786	-8.671
C	-5.261	-3.848	-8.72
C	-4.726	-3.956	-10.156
O	-5.48	-3.764	-11.111
C	-5.872	-5.222	-8.304
O	-6.648	-5.09	-7.098
C	-4.773	-6.245	-8.068
H	-6.629	-2.465	-9.51
H	-4.452	-3.594	-8.053
H	-6.513	-5.573	-9.101
H	-6.498	-4.21	-6.72
H	-4.195	-6.369	-8.972
H	-5.214	-7.19	-7.786
H	-4.129	-5.897	-7.274
N	-3.436	-4.242	-10.307
C	-2.858	-4.341	-11.637
C	-2.096	-5.633	-11.848
O	-1.19	-5.958	-11.08
H	-2.873	-4.396	-9.521
H	-3.651	-4.281	-12.366
H	-2.183	-3.51	-11.787
N	-2.458	-6.364	-12.893
C	-1.804	-7.627	-13.19
C	-0.508	-7.452	-13.964
O	0.385	-8.292	-13.887
H	-3.189	-6.049	-13.465
H	-1.588	-8.136	-12.262
H	-2.478	-8.237	-13.774
N	-0.406	-6.361	-14.711
C	0.796	-6.076	-15.496
C	1.971	-5.759	-14.586
O	3.11	-6.141	-14.858
C	0.545	-4.921	-16.448
H	-1.163	-5.741	-14.747
H	1.032	-6.956	-16.077
H	1.429	-4.743	-17.042
H	0.318	-4.034	-15.876
H	-0.286	-5.155	-17.097
N	1.689	-5.057	-13.506
C	2.691	-4.703	-12.536
C	3.198	-5.934	-11.778
O	4.272	-5.898	-11.187
C	2.121	-3.664	-11.573
O	0.752	-3.928	-11.299
H	0.774	-4.749	-13.356
H	3.518	-4.26	-13.069
H	2.675	-3.694	-10.646
H	2.205	-2.681	-12.013
H	0.665	-4.732	-10.774
N	2.433	-7.03	-11.833
C	2.798	-8.269	-11.137
C	4.104	-8.853	-11.678
O	4.739	-9.684	-11.035
C	1.674	-9.29	-11.231
H	1.606	-7.009	-12.361
H	2.941	-8.021	-10.095
H	1.535	-9.579	-12.262
H	0.761	-8.858	-10.854
H	1.93	-10.161	-10.645
N	4.493	-8.427	-12.86
C	5.736	-8.888	-13.419
C	6.923	-8.113	-12.872
O	7.97	-8.678	-12.596
H	3.928	-7.801	-13.362
H	5.858	-9.935	-13.185
H	5.704	-8.767	-14.491
N	6.751	-6.822	-12.708
C	7.833	-5.955	-12.246
C	7.96	-5.887	-10.712
O	9.03	-5.578	-10.202
C	7.671	-4.555	-12.846
C	6.295	-3.894	-12.649
C	6.249	-3.06	-11.379
C	5.914	-3.061	-13.862
H	5.871	-6.433	-12.901
H	8.75	-6.374	-12.631
H	8.423	-3.92	-12.401
H	7.868	-4.626	-13.904
H	5.558	-4.675	-12.538
H	6.991	-2.277	-11.432
H	6.453	-3.692	-10.526
H	5.268	-2.622	-11.273
H	5.921	-3.685	-14.742
H	6.619	-2.253	-13.983
H	4.92	-2.659	-13.719
N	6.871	-6.19	-9.997
C	6.814	-6.064	-8.514
C	8.066	-6.562	-7.776
O	8.673	-5.817	-7.01
C	5.582	-6.777	-7.911
C	5.46	-8.206	-8.455
C	4.313	-5.977	-8.163
C	4.34	-9.008	-7.826
H	6.069	-6.501	-10.474
H	6.708	-5.01	-8.301
H	5.73	-6.828	-6.843
H	5.29	-8.168	-9.52
H	6.387	-8.731	-8.272
