193
5dn7	A	part from atom 366 to 563
C	-24.664	19.407	-2.787
C	-22.263	16.819	-4.194
C	-20.266	19.653	-5.785
C	-18.65	20.842	-2.59
C	-17.717	17.25	-1.707
C	-16.164	16.838	-5.153
C	-14.098	20.006	-4.76
C	-12.971	18.847	-1.311
C	-11.849	15.651	-3.058
C	-9.872	17.74	-5.545
C	-8.164	19.435	-2.609
C	-7.204	16.045	-1.172
C	-5.809	15.002	-4.538
C	-3.57	17.995	-4.597
C	-1.033	16.35	-2.277
C	-1.463	12.631	-3.023
C	0.944	10.016	-4.42
C	-0.765	7.185	-6.338
C	2.64	5.472	-6.689
C	2.176	4.737	-2.965
C	-1.337	3.541	-3.579
C	-2.108	-0.098	-4.334
C	-3.525	-0.814	-7.794
C	-6.818	-2.195	-6.428
C	-7.521	1.019	-4.537
C	-6.775	3.183	-7.612
C	-9.227	0.975	-9.543
C	-11.827	1.626	-6.862
C	-11.241	5.398	-6.949
C	-11.455	5.611	-10.72
C	-14.643	3.503	-10.523
C	-16.117	6.071	-8.125
C	-15.216	8.916	-10.502
C	-16.851	6.981	-13.332
C	-20.046	6.807	-11.36
C	-19.936	10.475	-10.452
C	-19.882	11.334	-14.168
C	-23.409	9.883	-14.33
C	-24.73	12.794	-12.287
C	-27.647	14.721	-13.803
C	-26.064	17.908	-12.521
C	-23.398	19.068	-14.985
C	-21.526	20.96	-12.249
C	-20.903	17.679	-10.443
C	-19.756	16.202	-13.745
C	-17.455	19.202	-14.259
C	-15.931	18.926	-10.794
C	-15.444	15.179	-11.172
C	-13.688	15.748	-14.519
C	-11.389	18.163	-12.722
C	-10.636	15.484	-10.131
C	-9.982	12.956	-12.92
C	-7.687	15.389	-14.734
C	-5.718	15.998	-11.56
C	-5.511	12.249	-10.906
C	-4.196	11.701	-14.425
C	-1.637	14.386	-13.727
C	-0.485	12.802	-10.473
C	-0.353	9.388	-12.086
C	2.174	10.067	-14.782
C	3.279	6.821	-16.4
C	0.956	4.923	-14.177
C	-1.787	6.246	-16.404
C	-0.753	3.687	-18.923
C	-2.153	1.154	-16.517
C	-5.466	2.897	-16.572
C	-5.815	3.999	-20.193
C	-9.004	2.028	-20.854
C	-11.027	3.172	-17.815
C	-9.908	6.81	-18.149
C	-10.882	6.814	-21.837
C	-14.309	5.228	-21.131
C	-14.866	7.857	-18.441
C	-13.903	10.604	-20.861
C	-16.053	9.321	-23.713
C	-19.117	9.298	-21.428
C	-19.07	13.118	-21.042
C	-18.532	13.821	-24.757
C	-22.328	13.817	-25.177
C	-22.451	16.852	-22.925
C	-22.474	19.943	-25.093
C	-21.003	22.336	-22.525
C	-17.844	24.34	-22.905
C	-16.67	23.864	-19.273
C	-17.006	20.108	-19.742
C	-15.169	20.17	-23.088
C	-12.368	22.205	-21.43
C	-11.811	19.451	-18.918
C	-12.045	16.467	-21.238
C	-9.752	18.1	-23.814
C	-7.216	18.566	-21.007
C	-7.55	14.887	-20.164
C	-7.179	13.574	-23.736
C	-4.124	15.777	-24.422
C	-2.464	14.555	-21.236
C	-3.212	10.951	-22.275
C	-1.666	11.532	-25.695
C	1.368	13.106	-24.094
C	1.87	10.079	-21.836
C	1.17	7.052	-24.07
C	1.437	8.607	-27.522
C	-1.336	9.971	-29.79
C	-1.813	6.938	-32.046
C	-2.71	4.543	-29.184
C	-5.191	7.071	-27.694
C	-6.749	7.637	-31.112
C	-7.239	3.944	-31.998
C	-8.937	3.234	-28.7
C	-10.984	6.399	-29.107
C	-11.945	5.748	-32.718
C	-13.753	2.572	-31.798
C	-16.403	5.02	-30.546
C	-17.314	6.052	-34.049
C	-19.966	3.346	-33.683
C	-21.455	5.181	-30.684
C	-25.165	5.935	-30.934
C	-24.834	9.574	-29.758
C	-23.797	11.746	-32.716
C	-22.059	14.311	-30.421
C	-19.747	11.496	-29.284
C	-18.885	10.726	-32.913
C	-18.401	14.42	-33.713
C	-16.036	14.934	-30.761
C	-14.102	11.748	-31.558
C	-13.359	13.273	-34.932
C	-12.46	16.66	-33.396
C	-10.093	15.043	-30.888
C	-8.433	13.304	-33.836
C	-8.018	16.732	-35.52
C	-6.571	18.142	-32.337
C	-4.136	15.215	-32.137
C	-2.95	15.612	-35.734
C	-2.38	19.333	-35.18
C	-0.445	18.742	-31.935
C	1.898	15.906	-33.001
C	4.213	15.411	-36.016
C	3.154	13.202	-38.966
C	5.465	10.333	-38.073
C	3.747	9.754	-34.714
C	0.753	8.52	-36.727
C	-0.131	5.646	-39.003
C	-1.885	7.962	-41.424
C	-3.365	5.332	-43.814
C	-4.84	3.486	-40.866
C	-6.122	6.756	-39.472
C	-7.821	7.81	-42.699
C	-9.473	4.397	-43.097
C	-10.71	4.586	-39.522
C	-12.04	8.126	-40.103
C	-13.576	7.636	-43.549
C	-16.906	6.331	-42.152
C	-17.494	9.725	-40.56
C	-17.467	11.172	-44.092
C	-20.784	9.392	-44.702
C	-22.33	9.849	-41.261
C	-26.074	10.623	-41.148
C	-25.313	13.79	-39.197
C	-24.018	16.879	-40.979
C	-21.704	17.962	-38.118
C	-19.898	14.654	-38.096
C	-19.379	14.906	-41.855
C	-18.108	18.494	-41.535
C	-15.709	17.36	-38.8
C	-14.503	14.473	-40.966
C	-13.826	16.727	-43.963
C	-11.682	18.991	-41.754
C	-9.891	15.913	-40.494
C	-9.265	14.823	-44.078
C	-7.797	18.263	-44.898
C	-5.357	17.803	-42.02
C	-4.517	14.254	-43.142
C	-3.819	15.517	-46.683
C	-1.55	18.2	-45.253
C	0.272	15.715	-43.021
C	0.833	13.09	-45.706
C	2.187	15.708	-48.096
C	0.613	16.085	-51.556
C	2.608	13.178	-53.004
C	0.385	10.777	-51.017
C	-3.303	11.856	-51.275
C	-3.872	8.703	-53.198
C	-4.471	6.784	-49.978
C	-7.12	9.324	-48.945
C	-9.017	8.637	-52.122
C	-8.77	4.917	-51.445
C	-10.148	5.6	-47.968
C	-13.068	7.458	-49.571
C	-13.515	4.463	-51.879
C	-14.07	2.167	-48.891
C	-17.187	4.125	-47.866
C	-18.831	5.304	-51.096
C	-17.771	4.255	-54.645
