1225
1abs	A
C	23.871	9.8	-9.365
C	26.714	11.686	-11.004
C	28.441	14.899	-9.95
C	29.616	17.466	-12.471
C	33.255	18.598	-12.476
C	32.074	21.945	-11.1
C	30.444	20.169	-8.154
C	33.59	18.1	-7.518
C	35.659	21.304	-7.528
C	33.458	22.818	-4.809
C	33.974	19.625	-2.796
C	37.73	19.605	-3.262
C	38.052	23.32	-2.567
C	36.612	23.039	0.91
C	38.507	19.785	1.545
C	41.701	21.701	0.846
C	40.892	23.822	3.893
C	40.151	20.762	6.02
C	43.632	19.557	5.093
C	45.247	22.597	6.703
C	44.586	20.728	9.985
C	42.953	17.363	9.45
C	43.422	16.392	13.1
C	41.437	19.369	14.423
C	38.623	18.879	11.895
C	38.446	15.15	12.712
C	38.068	15.866	16.429
C	35.254	18.34	15.806
C	33.453	15.94	13.491
C	33.651	12.84	15.684
C	32.679	14.812	18.782
C	29.739	16.366	16.92
C	28.648	12.891	15.863
C	28.834	11.439	19.384
C	27.046	14.411	20.925
C	24.234	14.583	18.371
C	23.74	10.829	18.182
C	25.208	9.236	21.334
C	24.238	5.719	20.246
C	26.998	5.934	17.626
C	29.703	6.108	20.304
C	28.594	2.671	21.508
C	29.988	1.196	18.284
C	33.527	2.108	19.344
C	34.917	-0.322	21.922
C	38.051	1.793	22.187
C	36.242	5.047	22.849
C	32.86	4.282	24.407
C	34.113	4.973	27.916
C	34.524	8.69	27.135
C	31.825	10.516	29.111
C	32.233	14.182	28.164
C	33.353	16.432	25.328
C	36.348	17.407	27.442
C	37.371	13.753	27.691
C	36.882	13.345	23.967
C	38.984	16.407	23.174
C	41.809	15.209	25.396
C	41.91	11.731	23.887
C	45.009	11.366	21.726
C	43.779	8.085	20.26
C	40.441	9.612	19.229
C	42.324	12.421	17.539
C	44.479	9.935	15.671
C	41.374	8.01	14.647
C	39.754	11.184	13.314
C	42.826	11.671	11.119
C	42.459	8.113	9.842
C	38.763	8.572	9.07
C	39.059	11.934	7.282
C	42.142	10.873	5.311
C	40.283	7.822	3.974
C	37.29	10.009	3.102
C	39.52	12.57	1.395
C	41.099	9.833	-0.754
C	37.596	8.774	-1.781
C	36.525	12.342	-2.602
C	39.662	12.958	-4.67
C	38.669	9.978	-6.851
C	35.637	12.018	-7.958
C	33.302	9.027	-8.12
C	35.878	6.475	-9.25
C	36.24	5.092	-5.747
C	35.518	1.414	-6.272
C	38.873	0.228	-4.941
C	38.773	2.502	-1.908
C	35.269	1.395	-0.983
C	36.009	-2.332	-0.987
C	38.086	-2.562	2.237
C	36.02	0.124	3.938
C	32.7	-1.541	3.192
C	33.991	-4.938	4.245
C	35.264	-3.798	7.622
C	32.272	-1.557	8.311
C	29.725	-4.169	7.317
C	31.33	-7.24	8.882
C	33.555	-6.146	11.739
C	32.29	-2.781	12.998
C	28.684	-3.274	11.895
C	27.824	0.311	10.969
C	24.288	0.921	9.69
C	23.787	3.237	6.712
C	21.738	5.429	9.046
C	24.897	5.978	11.098
C	26.801	6.891	7.923
C	24.029	9.417	7.381
C	24.706	10.754	10.899
C	28.425	11.249	10.259
C	27.662	12.885	6.908
C	25.455	15.306	8.836
C	28.3	15.96	11.268
C	30.793	16.584	8.466
C	28.49	19.127	6.871
C	27.812	20.812	10.218
C	31.492	21.291	10.987
C	32.385	22.541	7.505
C	29.424	24.936	7.566
C	30.656	26.494	10.796
C	34.429	26.435	10.191
C	34.368	27.371	6.49
C	31.674	29.928	5.511
C	34.138	31.243	2.886
C	34.142	27.944	0.996
C	30.962	26.278	2.219
C	28.102	28.452	1.027
C	24.841	26.953	-0.278
C	26.141	25.65	-3.609
C	29.3	24.197	-2.043
C	27.278	22.509	0.713
C	24.923	21.065	-1.92
C	27.924	19.634	-3.81
C	29.38	18.066	-0.652
C	25.986	16.588	0.232
C	25.818	15.141	-3.281
C	29.292	13.601	-2.929
C	28.419	12.098	0.461
C	25.094	10.767	-0.848
C	27.021	9.054	-3.676
C	29.453	7.621	-1.154
C	26.569	6.23	0.961
C	24.727	4.88	-2.087
C	27.78	3.001	-3.334
C	28.68	1.81	0.172
C	25.143	0.512	0.705
C	25.266	-1.444	-2.554
C	28.535	-3.018	-1.427
C	27.063	-3.813	2.011
C	24.361	-5.706	0.155
C	26.903	-7.655	-1.908
C	28.753	-8.53	1.313
C	25.598	-9.826	3.01
C	24.809	-6.902	5.337
C	22.989	-4.032	3.634
C	22.33	-2.629	7.09
