33
2jui	MODEL 1	A
C	2.073	0	-1.246
C	5.18	-1.878	-2.318
C	7.314	-0.068	-4.867
C	6.407	3.201	-3.189
C	6.087	4.994	-6.507
C	9.553	6.51	-6.394
C	10.774	3.451	-8.259
C	12.504	3.701	-11.616
C	12.632	0.209	-13.071
C	9.434	-1.728	-12.485
C	7.156	1.14	-13.439
C	9.349	1.501	-16.503
C	8.325	-2.016	-17.455
C	4.682	-1.015	-17.223
C	5.199	2.251	-19.065
C	7.298	0.408	-21.619
C	4.202	-1.544	-22.583
C	2.337	1.75	-22.595
C	4.523	2.863	-25.477
C	2.829	0.09	-27.419
C	-0.438	0.194	-25.51
C	-1.021	3.537	-27.186
C	-2.27	1.566	-30.166
C	-4.696	-0.073	-27.766
C	-5.566	3.102	-25.899
C	-4.818	6.184	-27.966
C	-6.017	4.499	-31.136
C	-9.182	3.233	-29.492
C	-9.486	6.619	-27.828
C	-10.774	7.869	-31.16
C	-13.689	5.57	-30.421
C	-14.24	7.072	-26.99
C	-13.859	10.726	-27.904
33
2jui	MODEL 2	A
C	5.836	1.263	2.218
C	9.143	2.572	0.922
C	9.2	2.298	-2.852
C	5.952	4.238	-2.753
C	4.409	1.858	-5.259
C	5.059	3.961	-8.338
C	8.647	2.758	-8.426
C	10.547	3.761	-11.542
C	11.461	0.576	-13.372
C	8.746	-2.055	-13.185
C	5.937	0.351	-13.99
C	8.117	1.5	-16.863
C	7.937	-2.032	-18.212
C	4.156	-1.873	-18.114
C	4.01	1.606	-19.597
C	6.567	0.55	-22.18
C	4.021	-1.912	-23.512
C	1.619	1.011	-23.633
C	4.012	2.833	-25.93
C	3.352	0.025	-28.381
C	-0.279	-0.441	-27.421
C	-0.878	3.208	-28.232
C	-2.5	1.992	-31.428
C	-4.747	-0.097	-29.211
C	-5.413	2.691	-26.74
C	-4.637	6.099	-28.191
C	-6.271	4.92	-31.395
C	-9.419	3.677	-29.701
C	-9.549	6.866	-27.667
C	-10.791	8.781	-30.686
C	-13.297	5.951	-30.885
C	-14.696	6.915	-27.502
C	-14.24	10.668	-27.671
33
2jui	MODEL 3	A
C	3.814	3.555	-11.41
C	2.149	2.536	-8.167
C	4.369	3.536	-5.269
C	6.408	6.287	-6.883
C	8.232	6.337	-3.567
C	10.569	3.412	-4.124
C	9.818	1.62	-7.373
C	11.413	2.841	-10.58
C	12.23	-0.106	-12.811
C	9.441	-2.664	-12.862
C	6.72	-0.141	-13.609
C	9.017	1.116	-16.343
C	8.78	-2.323	-17.906
C	5.004	-2.059	-17.907
C	5	1.505	-19.183
C	7.604	0.529	-21.749
C	5.013	-1.758	-23.294
C	2.507	1.059	-22.953
C	4.617	3.007	-25.418
C	3.485	0.441	-27.959
C	0.114	-0.194	-26.359
C	-0.745	3.47	-26.765
C	-1.993	2.538	-30.214
C	-4.23	0.031	-28.473
C	-5.318	2.429	-25.755
C	-4.745	6.04	-26.735
C	-5.721	5.344	-30.325
C	-8.821	3.417	-29.323
C	-9.434	6.074	-26.698
C	-10.726	8.228	-29.531
C	-13.47	5.626	-29.698
C	-14.23	5.925	-26.002
C	-14.112	9.697	-25.703
33
2jui	MODEL 4	A
C	4.748	1.824	1.555
C	7.299	-0.004	-0.561
C	7.768	1.532	-3.989
C	6.479	4.913	-2.88
C	4.557	5.256	-6.123
C	7.343	6.879	-8.105
C	9.019	3.574	-8.876
C	11.591	3.588	-11.653
C	11.729	0.177	-13.288
C	8.465	-1.714	-12.97
C	6.334	1.092	-14.352
C	8.928	1.38	-17.093
C	8.021	-2.161	-18.073
C	4.391	-1.135	-18.39
C	5.193	2.065	-20.246
C	7.614	0.127	-22.416
C	4.658	-1.804	-23.778
C	2.749	1.46	-23.945
C	5.005	2.209	-26.89
C	2.938	-0.381	-28.718
C	-0.257	-0.189	-26.698
C	-0.589	3.489	-27.525
C	-0.858	2.392	-31.137
C	-3.852	0.362	-30.023
C	-5.113	2.648	-27.283
C	-4.437	6.225	-28.319
C	-6.04	5.787	-31.72
C	-8.96	3.943	-30.171
C	-8.957	6.552	-27.429
C	-10.664	8.832	-29.922
C	-13.479	6.315	-29.672
C	-13.595	6.537	-25.896
C	-13.222	10.284	-25.504
33
2jui	MODEL 5	A
C	3.013	-0.318	-0.363
C	4.129	-1.483	-3.787
C	6.188	1.04	-5.717
C	7.88	1.946	-2.455
C	7.782	5.654	-3.21
C	10.929	5.786	-5.309
C	10.292	3.424	-8.198
C	12.183	3.964	-11.432
C	12.313	0.663	-13.278
C	9.309	-1.5	-12.488
C	6.754	1.165	-13.324
C	8.781	1.768	-16.464
C	7.956	-1.792	-17.45
C	4.268	-1.04	-17.057
C	4.493	2.283	-18.854
C	6.606	0.628	-21.523
C	3.593	-1.492	-22.388
C	1.658	1.752	-22.623
C	3.941	2.764	-25.467
C	2.583	-0.274	-27.271
C	-0.895	-0.176	-25.78
C	-1.35	3.416	-26.881
C	-1.437	2.072	-30.418
C	-4.252	-0.167	-29.239
C	-5.871	2.298	-26.868
C	-5.121	5.841	-27.969
C	-5.783	4.968	-31.592
C	-9.015	3.179	-30.772
C	-9.813	6.03	-28.413
C	-10.763	7.998	-31.503
C	-13.544	5.444	-31.763
C	-14.657	6.023	-28.192
C	-14.47	9.803	-28.141
33
2jui	MODEL 6	A
C	0.731	6.591	-6.129
C	2.353	4.215	-8.589
C	5.945	3.33	-7.79
C	5.071	3.399	-4.108
C	8.273	5.24	-3.28
C	10.824	2.578	-4.134
C	10.017	1.041	-7.497
C	11.831	2.458	-10.502
C	12.625	-0.371	-12.888
C	9.947	-3.045	-12.858
C	7.078	-0.635	-13.393
C	9.186	0.841	-16.169
C	8.961	-2.524	-17.888
C	5.186	-2.38	-17.652
C	5.002	1.228	-18.782
C	7.476	0.431	-21.534
C	4.857	-1.874	-23.002
C	2.414	0.997	-22.662
C	4.576	2.88	-25.133
C	3.407	0.37	-27.713
C	0.048	-0.368	-26.134
C	-0.788	3.321	-26.257
C	-1.358	2.866	-29.971
C	-3.783	0.132	-28.987
C	-5.258	1.95	-26.013
C	-4.822	5.694	-26.349
C	-5.811	5.388	-29.989
C	-8.938	3.406	-29.203
C	-9.79	6.032	-26.613
C	-10.864	8.188	-29.532
C	-13.592	5.594	-29.925
C	-14.62	5.859	-26.291
C	-14.533	9.628	-25.957
33
2jui	MODEL 7	A
C	8.804	1.909	3.068
C	11.187	3.011	0.342
C	9.738	2.655	-3.136
C	6.233	3.707	-2.168
C	4.504	1.279	-4.5
C	4.874	3.342	-7.652
C	8.495	2.265	-7.891
C	10.27	3.468	-11.01
C	11.227	0.399	-13.008
C	8.59	-2.313	-12.883
C	5.698	0.048	-13.504
C	7.772	1.392	-16.37
C	7.649	-2.076	-17.883
C	3.87	-2.02	-17.674
C	3.591	1.498	-19.042
C	6.118	0.632	-21.723
C	3.569	-1.863	-22.991
C	1.163	1.054	-23.163
C	3.684	3.088	-25.12
C	3.143	0.668	-27.98
C	-0.485	0	-27.131
C	-1.122	3.652	-27.89
C	-2.276	2.522	-31.313
C	-4.721	0.279	-29.493
C	-5.808	2.957	-27.049
C	-4.974	6.434	-28.293
C	-5.777	5.508	-31.874
C	-9.004	3.784	-30.907
C	-9.644	6.656	-28.527
C	-10.689	8.639	-31.577
C	-13.496	6.106	-31.751
C	-14.508	6.702	-28.152
C	-14.243	10.477	-28.087
33
2jui	MODEL 8	A
C	3.04	-0.475	0.017
C	5.619	-2.312	-2.058
C	6.43	-0.199	-5.092
C	7.573	2.529	-2.73
C	5.898	5.194	-4.832
C	9.109	6.452	-6.393
C	10.439	3.51	-8.369
C	12.129	3.928	-11.729
C	12.392	0.488	-13.287
C	9.293	-1.609	-12.717
C	6.875	1.175	-13.569
C	9.013	1.718	-16.645
C	8.14	-1.816	-17.681
C	4.463	-0.961	-17.404
C	4.828	2.326	-19.243
C	6.949	0.554	-21.829
C	3.91	-1.474	-22.818
C	2.094	1.843	-22.991
C	4.334	2.848	-25.872
C	2.604	0.031	-27.716
C	-0.66	0.223	-25.81
C	-1.224	3.522	-27.578
C	-2.575	1.5	-30.478
C	-4.912	-0.095	-27.964
C	-5.82	3.163	-26.264
C	-5.048	6.163	-28.438
C	-6.055	4.35	-31.604
C	-9.241	3.052	-30.027
C	-9.708	6.49	-28.514
C	-10.904	7.568	-31.939
C	-13.778	5.214	-31.212
C	-14.498	6.833	-27.867
C	-14.192	10.457	-28.915
33
2jui	MODEL 9	A
C	5.05	-1.508	0.695
C	8.396	-0.269	-0.569
C	7.978	0.77	-4.184
C	6.066	3.756	-2.859
C	3.715	3.592	-5.821
C	5.875	5.129	-8.522
C	9.317	3.557	-8.481
C	11.314	4.102	-11.651
C	11.892	0.702	-13.21
C	8.918	-1.61	-12.837
C	6.375	1.001	-13.858
C	8.664	1.682	-16.794
C	8.118	-1.91	-17.857
C	4.374	-1.351	-17.806
C	4.592	1.992	-19.567
C	7.028	0.47	-22.033
C	4.222	-1.795	-23.184
C	1.981	1.255	-23.241
C	4.139	2.658	-26.015
C	2.697	-0.173	-28.073
C	-0.729	-0.048	-26.47
C	-1.044	3.378	-28.048
C	-2.302	1.596	-31.141
C	-4.809	-0.107	-28.874
C	-5.644	3.004	-26.886
C	-4.834	6.144	-28.838
C	-6.246	4.665	-32.022
C	-9.364	3.443	-30.258
C	-9.455	6.767	-28.45
C	-10.87	8.202	-31.653
C	-13.803	5.935	-30.885
C	-14.181	7.304	-27.377
C	-13.708	10.982	-28.133
33
2jui	MODEL 10	A
C	8.845	-1.218	2.693
C	11.352	-1.364	-0.139
C	10.046	0.171	-3.343
C	8.653	2.95	-1.183
C	5.468	2.958	-3.229
C	6.481	5.111	-6.172
C	8.779	2.355	-7.375
C	10.778	3.031	-10.518
C	11.058	-0.174	-12.512
C	7.885	-2.234	-12.394
C	5.604	0.664	-13.248
C	8.028	1.384	-16.065
C	7.196	-2.041	-17.444
C	3.517	-1.153	-17.423
C	4.08	2.294	-18.882
C	6.439	0.771	-21.42
C	3.481	-1.157	-22.783
C	1.639	2.148	-22.907
C	4.142	3.432	-25.439
C	3.143	0.4	-27.472
C	-0.525	0.562	-26.551
C	-0.796	4.188	-27.604
C	-0.731	2.901	-31.163
C	-3.866	1.001	-30.219
C	-5.291	3.57	-27.832
C	-5.021	6.488	-30.227
C	-6.734	4.475	-32.936
C	-9.591	3.497	-30.654
C	-9.675	7.093	-29.476
C	-11.466	7.813	-32.731
C	-14.25	5.724	-31.243
C	-14.286	7.728	-28.032
C	-13.979	11.203	-29.499
33
2jui	MODEL 11	A
C	0.526	0.749	-2.207
C	3.866	-1.019	-2.432
C	6.098	0.67	-4.98
C	4.827	4.147	-4.192
C	5.079	5.158	-7.83
C	8.406	6.912	-7.407
C	10.037	3.811	-8.838
C	12.117	3.898	-12
C	12.389	0.364	-13.328
C	9.252	-1.708	-12.887
C	6.903	1.06	-13.958
C	9.236	1.523	-16.902
C	8.412	-2.031	-17.91
C	4.723	-1.185	-17.869
C	5.198	2.106	-19.677
C	7.504	0.364	-22.12
C	4.535	-1.698	-23.243
C	2.535	1.514	-23.341
C	4.59	2.44	-26.381
C	2.691	-0.392	-28.024
C	-0.427	-0.188	-25.888
C	-1.012	3.364	-27.056
C	-2.31	1.887	-30.29
C	-4.665	-0.127	-28.115
C	-5.446	2.648	-25.663
C	-4.78	6.043	-27.2
C	-5.828	5.295	-30.759
C	-8.745	3.346	-29.337
C	-9.462	6.317	-27.104
C	-10.835	8.015	-30.195
C	-13.545	5.385	-29.938
C	-14.228	6.185	-26.302
C	-14.184	9.962	-26.541
33
2jui	MODEL 12	A
C	7.164	1.071	2.881
C	9.983	0.701	0.382
C	8.899	0.807	-3.243
C	6.489	3.563	-2.285
C	4.034	2.335	-4.892
C	5.258	4.37	-7.84
C	8.353	2.204	-8.092
C	10.641	2.886	-11.029
C	11.092	-0.386	-12.878
C	7.885	-2.39	-13.033
C	5.749	0.545	-14.105
C	8.425	1.191	-16.702
C	7.626	-2.211	-18.157
C	3.976	-1.238	-18.385
C	4.718	2.176	-19.84
C	7.21	0.574	-22.195
C	4.33	-1.305	-23.776
C	2.402	1.952	-23.753
C	4.755	3.199	-26.443
C	3.016	0.552	-28.515
C	-0.28	0.451	-26.655
C	-0.87	4.063	-27.619
C	-1.828	2.786	-31.051
C	-4.268	0.529	-29.24
C	-5.399	3.122	-26.725
C	-4.709	6.631	-27.963
C	-5.716	5.704	-31.492
C	-8.898	4.01	-30.339
C	-9.396	6.91	-27.959
C	-10.587	8.86	-30.977
C	-13.437	6.37	-30.945
C	-14.215	6.998	-27.294
C	-13.871	10.766	-27.397
33
2jui	MODEL 13	A
C	4.815	-1.365	-10.532
C	3.369	-1.659	-7.046
C	4.412	1.124	-4.703
C	3.972	3.577	-7.552
C	5.023	6.103	-4.936
C	8.712	6.551	-5.654
C	9.643	3.585	-7.814
C	11.948	3.853	-10.804
C	12.177	0.48	-12.505
C	9.017	-1.574	-12.157
C	6.718	1.219	-13.271
C	9.116	1.664	-16.165
C	8.297	-1.886	-17.19
C	4.612	-1.022	-17.229
C	5.141	2.265	-19.028
C	7.49	0.509	-21.42
C	4.534	-1.548	-22.584
C	2.557	1.674	-22.775
C	4.844	2.725	-25.602
C	3.348	-0.233	-27.429
C	-0.068	-0.165	-25.801
C	-0.507	3.462	-26.792
C	-1.546	2.161	-30.191
C	-4.311	0.357	-28.341
C	-4.894	2.986	-25.681
C	-5.256	5.904	-28.064
C	-7.779	3.845	-29.993
C	-9.867	3.376	-26.871
C	-10.015	7.117	-26.317
C	-11.218	7.776	-29.844
C	-13.84	5.169	-29.035
C	-15.31	7.421	-26.371
C	-14.538	10.827	-27.831
33
2jui	MODEL 14	A
C	-0.686	3.312	-6.405
C	1.223	0.835	-4.273
C	4.918	1.345	-4.911
C	4.508	4.889	-3.647
C	5.471	6.299	-7.025
C	9.179	5.955	-6.347
C	9.33	3.429	-9.161
C	11.853	4.063	-11.91
C	12.49	0.731	-13.588
C	9.572	-1.65	-13.21
C	6.975	0.847	-14.373
C	9.342	1.584	-17.233
C	8.874	-2.015	-18.307
C	5.125	-1.504	-18.365
C	5.353	1.832	-20.138
C	7.88	0.329	-22.522
C	5.156	-1.987	-23.766
C	2.86	1.022	-23.854
C	4.996	2.192	-26.751
C	3.415	-0.635	-28.709
C	0.196	-0.822	-26.726
C	-0.39	2.884	-27.225
C	-1.937	1.991	-30.562
C	-4.146	-0.38	-28.607
C	-4.748	1.961	-25.694
C	-4.128	5.563	-26.677
C	-5.74	5.032	-30.06
C	-8.763	3.32	-28.557
C	-8.731	5.975	-25.86
C	-10.314	8.259	-28.43
C	-13.232	5.865	-28.143
C	-13.342	6.163	-24.371
C	-12.896	9.911	-24.082
33
2jui	MODEL 15	A
C	-0.561	1.917	-7.115
C	2.008	-0.647	-6.042
C	5.351	0.335	-7.521
C	4.893	3.573	-5.616
C	5.985	5.624	-8.604
C	9.259	6.575	-6.961
C	11.039	3.634	-8.546
C	12.802	3.899	-11.885
C	13.202	0.429	-13.342
C	10.261	-1.87	-12.716
C	7.65	0.741	-13.546
C	9.713	1.42	-16.646
C	9.067	-2.167	-17.668
C	5.342	-1.588	-17.332
C	5.444	1.757	-19.099
C	7.671	0.219	-21.745
C	4.777	-2.023	-22.704
C	2.546	1.029	-22.518
C	4.277	2.165	-25.686
C	2.403	-0.689	-27.319
C	-0.681	-0.479	-25.135
C	-1.104	3.129	-26.2
C	-2.177	1.841	-29.593
C	-4.633	-0.324	-27.694
C	-5.6	2.271	-25.113
C	-4.872	5.762	-26.383
C	-5.769	5.226	-30.02
C	-8.83	3.355	-28.813
C	-9.517	6.256	-26.482
C	-10.666	8.142	-29.557
C	-13.478	5.609	-29.588
C	-14.363	6.268	-25.967
C	-14.111	10.045	-25.987
33
2jui	MODEL 16	A
C	3.765	-0.383	-11.338
C	0.888	0.978	-9.291
C	2.007	4.149	-7.554
C	4.182	5.369	-10.401
C	4.93	8.297	-8.123
C	8.168	7.142	-6.539
C	9.371	3.989	-8.253
C	11.629	4.123	-11.288
C	12.041	0.615	-12.648
C	8.9	-1.479	-12.373
C	6.62	1.216	-13.737
C	9.162	1.573	-16.518
C	8.456	-2.035	-17.417
C	4.765	-1.242	-17.691
C	5.338	1.969	-19.613
C	7.842	0.15	-21.792
C	4.986	-2.016	-23.007
C	2.967	1.153	-23.459
C	5.343	1.97	-26.291
C	3.503	-0.791	-28.114
C	0.269	-0.749	-26.146
C	-0.158	2.879	-27.137
C	-1.965	1.623	-30.216
C	-4.164	-0.305	-27.812
C	-4.464	2.466	-25.252
C	-3.711	5.843	-26.786
C	-5.558	4.917	-29.957
C	-8.562	3.595	-28.072
C	-8.252	6.596	-25.787
C	-9.878	8.579	-28.571
C	-12.875	6.397	-27.81
C	-12.773	7.227	-24.118
C	-12.125	10.947	-24.379
33
2jui	MODEL 17	A
C	3.653	-0.581	-7.448
C	1.698	2.155	-5.71
C	4.164	4.333	-3.839
C	5.769	5.059	-7.188
C	8.364	6.826	-5.074
C	11.375	4.55	-4.787
C	10.298	2.543	-7.81
C	11.986	3.165	-11.14
C	12.257	-0.082	-13.066
C	9.088	-2.14	-12.838
C	6.797	0.713	-13.806
C	9.197	1.307	-16.671
C	8.363	-2.18	-17.884
C	4.682	-1.299	-17.877
C	5.226	2.077	-19.498
C	7.571	0.444	-21.98
C	4.594	-1.541	-23.217
C	2.62	1.688	-23.276
C	4.789	2.714	-26.204
C	2.811	0.042	-28.014
C	-0.345	0.05	-25.925
C	-0.939	3.639	-26.97
C	-1.544	2.274	-30.448
C	-4.17	0.058	-28.861
C	-5.408	2.537	-26.282
C	-4.82	6.072	-27.501
C	-6.013	5.207	-30.987
C	-9.129	3.51	-29.669
C	-9.479	6.388	-27.236
C	-10.838	8.374	-30.158
C	-13.695	5.898	-29.969
C	-14.229	6.517	-26.274
C	-13.935	10.291	-26.283
33
2jui	MODEL 18	A
C	7.514	-3.381	-5.147
C	7.858	-1.262	-2.029
C	6.238	2.102	-2.646
C	3.573	0.909	-5.054
C	2.803	4.606	-5.315
C	5.161	5.714	-8.061
C	8.336	3.658	-7.936
C	10.5	3.85	-11.036
C	10.854	0.324	-12.364
C	7.59	-1.585	-12.196
C	5.52	1.233	-13.644
C	8.165	1.423	-16.346
C	7.274	-2.143	-17.249
C	3.647	-1.135	-17.641
C	4.467	2.024	-19.558
C	6.925	0.048	-21.65
C	3.987	-1.93	-22.985
C	2.145	1.35	-23.4
C	4.647	2.077	-26.145
C	2.895	-0.628	-28.129
C	-0.445	-0.431	-26.359
C	-0.709	3.235	-27.261
C	-1.783	2.108	-30.711
C	-4.415	0.051	-28.931
C	-5.304	2.692	-26.369
C	-4.302	6.146	-27.551
C	-5.402	5.368	-31.088
C	-8.732	3.981	-29.942
C	-8.94	6.894	-27.534
C	-9.941	8.981	-30.529
C	-13.014	6.771	-30.522
C	-13.731	7.444	-26.867
C	-13.055	11.168	-26.911
33
2jui	MODEL 19	A
C	2.259	-1.094	-0.735
C	4.225	-2.61	-3.592
C	5.741	0.165	-5.673
C	7.269	1.361	-2.423
C	6.468	4.954	-3.307
C	9.583	5.712	-5.317
C	9.533	3.324	-8.253
C	11.667	4.184	-11.258
C	12.182	0.956	-13.166
C	9.303	-1.444	-12.637
C	6.611	1.074	-13.497
C	8.734	1.93	-16.511
C	8.219	-1.641	-17.656
C	4.471	-1.171	-17.418
C	4.534	2.224	-19.088
C	6.884	0.827	-21.705
C	4.085	-1.475	-22.796
C	1.935	1.633	-23
C	4.245	3.133	-25.596
C	3.733	-0.097	-27.501
C	0.073	-0.429	-26.597
C	-0.582	2.994	-28.073
C	-2.062	1.135	-31.019
C	-4.433	-0.456	-28.535
C	-5.008	2.68	-26.497
C	-4.398	5.797	-28.556
C	-6.162	4.133	-31.462
C	-9.161	3.172	-29.361
C	-9.266	6.745	-28.117
C	-10.81	7.586	-31.469
C	-13.726	5.544	-30.185
C	-13.897	7.471	-26.931
C	-13.464	10.921	-28.427
33
2jui	MODEL 20	A
C	4.534	6.026	-11.192
C	2.726	6.631	-7.922
C	4.362	4.739	-5.082
C	7.78	6.169	-5.857
C	8.679	4.526	-2.568
C	10.488	1.494	-3.934
C	9.149	0.642	-7.37
C	11.039	2.322	-10.187
C	12.038	-0.345	-12.679
C	9.365	-2.998	-13.057
C	6.542	-0.524	-13.547
C	8.803	1.133	-16.091
C	8.728	-2.113	-18.037
C	4.944	-2.011	-18.056
C	4.794	1.671	-18.919
C	7.458	1.106	-21.547
C	4.986	-1.13	-23.34
C	2.378	1.565	-22.827
C	4.342	3.633	-25.316
C	3.497	0.912	-27.808
C	0.082	0.109	-26.387
C	-0.916	3.755	-26.572
C	-1.563	3.189	-30.258
C	-3.771	0.317	-29.161
C	-5.317	2.117	-26.212
C	-5.035	5.872	-26.595
C	-5.814	5.641	-30.291
C	-8.803	3.391	-29.721
C	-9.742	5.634	-26.821
C	-11.055	8.044	-29.428
C	-13.582	5.304	-30.081
C	-14.541	5.065	-26.427
C	-14.724	8.764	-25.643
